REMARK VINA RESULT:    -8.085      0.000      0.000
REMARK INTER + INTRA:         -10.935
REMARK INTER:                 -10.242
REMARK INTRA:                  -0.693
REMARK UNBOUND:                -0.486
REMARK  6 active torsions:
REMARK  status: ('A' for Active; 'I' for Inactive)
REMARK    1  A    between atoms: N1_10  and  C11_12 
REMARK    2  A    between atoms: C11_12  and  C12_13 
REMARK    3  A    between atoms: C12_13  and  C13_14 
REMARK    4  A    between atoms: C13_14  and  C14_15 
REMARK    5  A    between atoms: C13_14  and  O1_23 
REMARK    6  A    between atoms: C18_19  and  N2_21 
ROOT
ATOM      1  C12 <0> d   1       8.754   2.735  17.815  0.00  0.00     0.064 C 
ENDROOT
BRANCH   1   2
ATOM      2  C11 <0> d   1      10.252   2.761  18.127  0.00  0.00     0.238 C 
BRANCH   2   3
ATOM      3  N1  <0> d   1      10.893   1.595  17.532  0.00  0.00    -0.066 N 
ATOM      4  C4  <0> d   1      12.242   1.328  18.070  0.00  0.00     0.189 C 
ATOM      5  C3  <0> d   1      12.478  -0.155  17.666  0.00  0.00     0.044 C 
ATOM      6  C5  <0> d   1      12.288   1.407  19.583  0.00  0.00     0.042 C 
ATOM      7  C2  <0> d   1      11.105  -0.751  18.080  0.00  0.00    -0.017 C 
ATOM      8  C1  <0> d   1      10.789  -2.062  17.343  0.00  0.00     0.017 C 
ATOM      9  C7  <0> d   1      11.146  -0.924  19.599  0.00  0.00     0.019 C 
ATOM     10  C10 <0> d   1      10.097   0.372  17.743  0.00  0.00     0.244 C 
ATOM     11  C6  <0> d   1      11.586   0.313  20.356  0.00  0.00    -0.045 C 
ATOM     12  C8  <0> d   1      10.369   0.910  21.090  0.00  0.00     0.015 C 
ATOM     13  C9  <0> d   1      12.561  -0.159  21.466  0.00  0.00     0.015 C 
ATOM     14  H30 <0> d   1      10.974   1.746  16.525  0.00  0.00     0.280 HD
ENDBRANCH   2   3
ENDBRANCH   1   2
BRANCH   1  15
ATOM     15  C13 <0> d   1       8.425   3.829  16.798  0.00  0.00     0.152 C 
BRANCH  15  16
ATOM     16  C14 <0> d   1       6.949   3.804  16.495  0.00  0.00    -0.027 A 
ATOM     17  C19 <0> d   1       6.249   2.616  16.570  0.00  0.00     0.041 A 
ATOM     18  C18 <0> d   1       4.888   2.594  16.295  0.00  0.00     0.065 A 
ATOM     19  C17 <0> d   1       4.236   3.769  15.934  0.00  0.00     0.142 A 
ATOM     20  C16 <0> d   1       4.945   4.954  15.854  0.00  0.00     0.045 A 
ATOM     21  F1  <0> d   1       2.913   3.752  15.662  0.00  0.00    -0.204 F 
ATOM     22  C15 <0> d   1       6.299   4.970  16.134  0.00  0.00     0.013 A 
BRANCH  18  23
ATOM     23  N2  <0> d   1       4.176   1.393  16.378  0.00  0.00    -0.397 N 
ATOM     24  H27 <0> d   1       4.653   0.552  16.456  0.00  0.00     0.156 HD
ATOM     25  H28 <0> d   1       3.207   1.402  16.356  0.00  0.00     0.156 HD
ENDBRANCH  18  23
ENDBRANCH  15  16
BRANCH  15  26
ATOM     26  O1  <0> d   1       8.780   5.104  17.336  0.00  0.00    -0.391 OA
ATOM     27  H29 <0> d   1       9.171   5.062  18.220  0.00  0.00     0.210 HD
ENDBRANCH  15  26
ENDBRANCH   1  15
TORSDOF 6
