REMARK  6 active torsions:
REMARK  status: ('A' for Active; 'I' for Inactive)
REMARK    1  A    between atoms: N1_10  and  C11_12 
REMARK    2  A    between atoms: C11_12  and  C12_13 
REMARK    3  A    between atoms: C12_13  and  C13_14 
REMARK    4  A    between atoms: C13_14  and  C14_15 
REMARK    5  A    between atoms: C13_14  and  O1_23 
REMARK    6  A    between atoms: C18_19  and  N2_21 
ROOT
ATOM      1  C12 <0> d   1       1.368  -2.424  -3.427  0.00  0.00     0.064 C 
ENDROOT
BRANCH   1   2
ATOM      2  C11 <0> d   1       0.577  -2.827  -2.181  0.00  0.00     0.238 C 
BRANCH   2   3
ATOM      3  N1  <0> d   1      -0.211  -1.692  -1.717  0.00  0.00    -0.066 N 
ATOM      4  C4  <0> d   1      -1.100  -2.018  -0.584  0.00  0.00     0.189 C 
ATOM      5  C3  <0> d   1      -1.426  -0.615   0.003  0.00  0.00     0.044 C 
ATOM      6  C5  <0> d   1      -0.396  -2.818   0.494  0.00  0.00     0.042 C 
ATOM      7  C2  <0> d   1       0.002  -0.004   0.002  0.00  0.00    -0.017 C 
ATOM      8  C1  <0> d   1      -0.019   1.532   0.011  0.00  0.00     0.017 C 
ATOM      9  C7  <0> d   1       0.727  -0.591   1.214  0.00  0.00     0.019 C 
ATOM     10  C10 <0> d   1       0.649  -0.577  -1.280  0.00  0.00     0.244 C 
ATOM     11  C6  <0> d   1       0.654  -2.101   1.313  0.00  0.00    -0.045 C 
ATOM     12  C8  <0> d   1       2.041  -2.692   0.990  0.00  0.00     0.015 C 
ATOM     13  C9  <0> d   1       0.383  -2.444   2.801  0.00  0.00     0.015 C 
ATOM     14  H30 <0> d   1      -0.788  -1.358  -2.491  0.00  0.00     0.280 HD
ENDBRANCH   2   3
ENDBRANCH   1   2
BRANCH   1  15
ATOM     15  C13 <0> d   1       2.195  -3.615  -3.914  0.00  0.00     0.152 C 
BRANCH  15  16
ATOM     16  C14 <0> d   1       2.877  -3.256  -5.209  0.00  0.00    -0.027 A 
ATOM     17  C19 <0> d   1       2.291  -3.593  -6.414  0.00  0.00     0.041 A 
ATOM     18  C18 <0> d   1       2.917  -3.258  -7.607  0.00  0.00     0.065 A 
ATOM     19  C17 <0> d   1       4.139  -2.594  -7.585  0.00  0.00     0.142 A 
ATOM     20  C16 <0> d   1       4.723  -2.266  -6.375  0.00  0.00     0.045 A 
ATOM     21  F1  <0> d   1       4.754  -2.270  -8.743  0.00  0.00    -0.204 F 
ATOM     22  C15 <0> d   1       4.093  -2.597  -5.190  0.00  0.00     0.013 A 
BRANCH  18  23
ATOM     23  N2  <0> d   1       2.322  -3.592  -8.828  0.00  0.00    -0.397 N 
ATOM     24  H27 <0> d   1       2.763  -3.361  -9.661  0.00  0.00     0.156 HD
ATOM     25  H28 <0> d   1       1.470  -4.054  -8.842  0.00  0.00     0.156 HD
ENDBRANCH  18  23
ENDBRANCH  15  16
BRANCH  15  26
ATOM     26  O1  <0> d   1       3.180  -3.945  -2.933  0.00  0.00    -0.391 OA
ATOM     27  H29 <0> d   1       3.799  -3.227  -2.740  0.00  0.00     0.210 HD
ENDBRANCH  15  26
ENDBRANCH   1  15
TORSDOF 6
